# generated using pymatgen
data_Cs3Au2Br11
_symmetry_space_group_name_H-M   'P 1'
_cell_length_a   7.88897141
_cell_length_b   16.91869829
_cell_length_c   19.22441581
_cell_angle_alpha   90.00000000
_cell_angle_beta   93.85077086
_cell_angle_gamma   90.00000000
_symmetry_Int_Tables_number   1
_chemical_formula_structural   Cs3Au2Br11
_chemical_formula_sum   'Cs12 Au8 Br44'
_cell_volume   2560.11153237
_cell_formula_units_Z   4
loop_
 _symmetry_equiv_pos_site_id
 _symmetry_equiv_pos_as_xyz
  1  'x, y, z'
loop_
 _atom_site_type_symbol
 _atom_site_label
 _atom_site_symmetry_multiplicity
 _atom_site_fract_x
 _atom_site_fract_y
 _atom_site_fract_z
 _atom_site_occupancy
  Cs  Cs1  1  0.253413  0.631558  0.923842  1
  Cs  Cs2  1  0.253413  0.868442  0.423842  1
  Cs  Cs3  1  0.765239  0.024367  0.099093  1
  Cs  Cs4  1  0.765239  0.475633  0.599093  1
  Cs  Cs5  1  0.234761  0.524367  0.400907  1
  Cs  Cs6  1  0.742300  0.776114  0.673764  1
  Cs  Cs7  1  0.742300  0.723886  0.173764  1
  Cs  Cs8  1  0.746587  0.131558  0.576158  1
  Cs  Cs9  1  0.234761  0.975633  0.900907  1
  Cs  Cs10  1  0.257700  0.276114  0.826236  1
  Cs  Cs11  1  0.746587  0.368442  0.076158  1
  Cs  Cs12  1  0.257700  0.223886  0.326236  1
  Au  Au13  1  0.263605  0.311482  0.565079  1
  Au  Au14  1  0.243526  0.497770  0.169051  1
  Au  Au15  1  0.756474  0.997770  0.330949  1
  Au  Au16  1  0.756474  0.502230  0.830949  1
  Au  Au17  1  0.243526  0.002230  0.669051  1
  Au  Au18  1  0.736395  0.688518  0.434921  1
  Au  Au19  1  0.736395  0.811482  0.934921  1
  Au  Au20  1  0.263605  0.188518  0.065079  1
  Br  Br21  1  0.614374  0.202267  0.210299  1
  Br  Br22  1  0.260345  0.167303  0.540813  1
  Br  Br23  1  0.071084  0.832197  0.074502  1
  Br  Br24  1  0.022653  0.563036  0.090776  1
  Br  Br25  1  0.967315  0.795691  0.854564  1
  Br  Br26  1  0.977347  0.063036  0.409224  1
  Br  Br27  1  0.467966  0.947881  0.597764  1
  Br  Br28  1  0.737745  0.544166  0.411998  1
  Br  Br29  1  0.022653  0.936964  0.590776  1
  Br  Br30  1  0.496899  0.171246  0.985796  1
  Br  Br31  1  0.019553  0.442218  0.238621  1
  Br  Br32  1  0.230124  0.731349  0.682444  1
  Br  Br33  1  0.980447  0.942218  0.261379  1
  Br  Br34  1  0.385626  0.702267  0.289701  1
  Br  Br35  1  0.737745  0.955834  0.911998  1
  Br  Br36  1  0.230124  0.768651  0.182444  1
  Br  Br37  1  0.019553  0.057782  0.738621  1
  Br  Br38  1  0.462258  0.432133  0.247567  1
  Br  Br39  1  0.967315  0.704309  0.354564  1
  Br  Br40  1  0.537742  0.932133  0.252433  1
  Br  Br41  1  0.071084  0.667803  0.574502  1
  Br  Br42  1  0.496899  0.328754  0.485796  1
  Br  Br43  1  0.032685  0.295691  0.645436  1
  Br  Br44  1  0.503101  0.828754  0.014204  1
  Br  Br45  1  0.769876  0.231349  0.817556  1
  Br  Br46  1  0.467966  0.552119  0.097764  1
  Br  Br47  1  0.739655  0.667303  0.959187  1
  Br  Br48  1  0.503101  0.671246  0.514204  1
  Br  Br49  1  0.980447  0.557782  0.761379  1
  Br  Br50  1  0.928916  0.332197  0.425498  1
  Br  Br51  1  0.032685  0.204309  0.145436  1
  Br  Br52  1  0.614374  0.297733  0.710299  1
  Br  Br53  1  0.385626  0.797733  0.789701  1
  Br  Br54  1  0.262255  0.044166  0.088002  1
  Br  Br55  1  0.739655  0.832697  0.459187  1
  Br  Br56  1  0.532034  0.052119  0.402236  1
  Br  Br57  1  0.769876  0.268651  0.317556  1
  Br  Br58  1  0.977347  0.436964  0.909224  1
  Br  Br59  1  0.262255  0.455834  0.588002  1
  Br  Br60  1  0.532034  0.447881  0.902236  1
  Br  Br61  1  0.928916  0.167803  0.925498  1
  Br  Br62  1  0.260345  0.332697  0.040813  1
  Br  Br63  1  0.462258  0.067867  0.747567  1
  Br  Br64  1  0.537742  0.567867  0.752433  1
